obj01
  PyMOL3.1          3D                             0

 45 46  0  0  0  0  0  0  0  0999 V2000
   76.6840  -24.8690   36.8340 C   0  0  0  0  0  0  0  0  0  0  0  0
   74.9970  -26.0740   37.7330 O   0  0  0  0  0  0  0  0  0  0  0  0
   77.1870  -26.2270   37.1310 C   0  0  0  0  0  0  0  0  0  0  0  0
   76.2590  -22.7210   36.8610 N   0  0  0  0  0  0  0  0  0  0  0  0
   78.4230  -23.2100   36.0080 O   0  0  0  0  0  0  0  0  0  0  0  0
   76.0990  -26.8720   37.6670 C   0  0  0  0  0  0  0  0  0  0  0  0
   78.0110  -20.0090   37.6150 N   0  0  0  0  0  0  0  0  0  0  0  0
   77.1320  -21.3910   39.0970 O   0  0  0  0  0  0  0  0  0  0  0  0
   75.4830  -24.7940   37.1660 C   0  0  0  0  0  0  0  0  0  0  0  0
   78.2280  -17.3850   39.7470 N   0  0  0  0  0  0  0  0  0  0  0  0
   79.1160  -17.3050   37.5690 O   0  0  0  0  0  0  0  0  0  0  0  0
   77.2080  -23.5090   36.1790 C   0  0  0  0  0  0  0  0  0  0  0  0
   79.7100  -14.0920   39.1340 N   0  0  0  0  0  0  0  0  0  0  0  0
   80.4120  -15.8630   40.5410 O   0  0  0  0  0  0  0  0  0  0  0  0
   76.4380  -21.3200   36.8380 C   0  0  0  0  0  0  0  0  0  0  0  0
   83.0300  -15.8120   35.3220 N   0  0  0  0  0  0  0  0  0  0  0  0
   82.8600  -10.2750   41.1570 O   0  0  0  0  0  0  0  0  0  0  0  0
   77.2740  -20.8650   37.9670 C   0  0  0  0  0  0  0  0  0  0  0  0
   82.4830  -11.6740   43.0240 O   0  0  0  0  0  0  0  0  0  0  0  0
   75.0430  -20.6310   36.8980 C   0  0  0  0  0  0  0  0  0  0  0  0
   81.6010  -14.2200   34.7280 O   0  0  0  0  0  0  0  0  0  0  0  0
   74.8070  -19.1030   36.9100 C   0  0  0  0  0  0  0  0  0  0  0  0
   74.1500  -21.0800   35.7340 C   0  0  0  0  0  0  0  0  0  0  0  0
   78.8730  -19.4960   38.6330 C   0  0  0  0  0  0  0  0  0  0  0  0
   80.2890  -19.7110   38.0820 C   0  0  0  0  0  0  0  0  0  0  0  0
   81.2790  -19.0980   39.0840 C   0  0  0  0  0  0  0  0  0  0  0  0
   80.4860  -21.2510   38.1220 C   0  0  0  0  0  0  0  0  0  0  0  0
   78.7550  -17.9390   38.5740 C   0  0  0  0  0  0  0  0  0  0  0  0
   78.0400  -15.8790   39.9610 C   0  0  0  0  0  0  0  0  0  0  0  0
   77.3770  -15.6100   41.3180 C   0  0  0  0  0  0  0  0  0  0  0  0
   75.9360  -16.2220   41.4410 C   0  0  0  0  0  0  0  0  0  0  0  0
   74.9730  -15.6840   40.3450 C   0  0  0  0  0  0  0  0  0  0  0  0
   75.3260  -15.8980   42.8050 C   0  0  0  0  0  0  0  0  0  0  0  0
   79.4670  -15.2570   39.8890 C   0  0  0  0  0  0  0  0  0  0  0  0
   80.9590  -13.5390   39.0440 C   0  0  0  0  0  0  0  0  0  0  0  0
   81.0860  -12.0700   39.4730 C   0  0  0  0  0  0  0  0  0  0  0  0
   81.4180  -12.2360   40.9540 C   0  0  0  0  0  0  0  0  0  0  0  0
   82.3180  -11.2750   41.6900 C   0  0  0  0  0  0  0  0  0  0  0  0
   83.3240  -10.8830   43.8540 C   0  0  0  0  0  0  0  0  0  0  0  0
   83.3160  -11.5790   45.2140 C   0  0  0  0  0  0  0  0  0  0  0  0
   81.4710  -13.6310   37.6600 C   0  0  0  0  0  0  0  0  0  0  0  0
   81.7910  -14.9540   37.0590 C   0  0  0  0  0  0  0  0  0  0  0  0
   82.9830  -15.7200   37.6410 C   0  0  0  0  0  0  0  0  0  0  0  0
   83.4930  -16.5550   36.4850 C   0  0  0  0  0  0  0  0  0  0  0  0
   82.0940  -14.9160   35.5780 C   0  0  0  0  0  0  0  0  0  0  0  0
  1  3  1  0  0  0  0
  2  6  1  0  0  0  0
  3  6  2  0  0  0  0
  1  9  2  0  0  0  0
  2  9  1  0  0  0  0
  1 12  1  0  0  0  0
  4 12  1  0  0  0  0
  5 12  2  0  0  0  0
  4 15  1  0  0  0  0
  7 18  1  0  0  0  0
  8 18  2  0  0  0  0
 15 18  1  0  0  0  0
 15 20  1  0  0  0  0
 20 22  1  0  0  0  0
 20 23  1  0  0  0  0
  7 24  1  0  0  0  0
 24 25  1  0  0  0  0
 25 26  1  0  0  0  0
 25 27  1  0  0  0  0
 10 28  1  0  0  0  0
 11 28  2  0  0  0  0
 24 28  1  0  0  0  0
 10 29  1  0  0  0  0
 29 30  1  0  0  0  0
 30 31  1  0  0  0  0
 31 32  1  0  0  0  0
 31 33  1  0  0  0  0
 13 34  1  0  0  0  0
 14 34  2  0  0  0  0
 29 34  1  0  0  0  0
 13 35  1  0  0  0  0
 35 36  1  0  0  0  0
 36 37  2  0  0  0  0
 17 38  2  0  0  0  0
 19 38  1  0  0  0  0
 37 38  1  0  0  0  0
 19 39  1  0  0  0  0
 39 40  1  0  0  0  0
 35 41  1  0  0  0  0
 41 42  1  0  0  0  0
 42 43  1  0  0  0  0
 16 44  1  0  0  0  0
 43 44  1  0  0  0  0
 16 45  1  0  0  0  0
 21 45  2  0  0  0  0
 42 45  1  0  0  0  0
M  END
$$$$
