obj01
  PyMOL3.1          3D                             0

 12 12  0  0  0  0  0  0  0  0999 V2000
   18.3400    6.3750    3.7830 C   0  0  0  0  0  0  0  0  0  0  0  0
   18.8660    2.9460    6.1020 N   0  0  0  0  0  0  0  0  0  0  0  0
   19.7430    3.7700    8.1000 O   0  0  0  0  0  0  0  0  0  0  0  0
   17.8360    5.1390    3.4030 C   0  0  0  0  0  0  0  0  0  0  0  0
   19.1900    1.3700    9.3940 N   0  0  0  0  0  0  0  0  0  0  0  0
   18.0310    4.0200    4.2110 C   0  0  0  0  0  0  0  0  0  0  0  0
   18.1370    7.4240    2.9940 N   0  0  0  0  0  0  0  0  0  0  0  0
   18.7480    4.1070    5.4100 C   0  0  0  0  0  0  0  0  0  0  0  0
   19.2620    5.3730    5.7760 C   0  0  0  0  0  0  0  0  0  0  0  0
   19.0580    6.4950    4.9760 C   0  0  0  0  0  0  0  0  0  0  0  0
   19.3410    2.8490    7.3780 C   0  0  0  0  0  0  0  0  0  0  0  0
   19.3280    1.3980    7.9230 C   0  0  0  0  0  0  0  0  0  0  0  0
  1  4  1  0  0  0  0
  4  6  2  0  0  0  0
  1  7  1  0  0  0  0
  2  8  1  0  0  0  0
  6  8  1  0  0  0  0
  8  9  2  0  0  0  0
  1 10  2  0  0  0  0
  9 10  1  0  0  0  0
  2 11  1  0  0  0  0
  3 11  2  0  0  0  0
  5 12  1  0  0  0  0
 11 12  1  0  0  0  0
M  END
$$$$
